test/data/case30.json
{
  "areas": [],
  "baseMVA": 100.0,
  "branch": [
    {
      "angmax": 30.0,
      "angmin": -30.0,
      "br_b": 0.0528,
      "br_r": 0.0192,
      "br_status": 1,
      "br_x": 0.0575,
      "f_bus": 1,
      "index": 1,
      "rate_a": 138.0,
      "rate_b": 138.0,
      "rate_c": 138.0,
      "shift": 0.0,
      "t_bus": 2,
      "tap": 0.0
    },
    {
      "angmax": 30.0,
      "angmin": -30.0,
      "br_b": 0.0408,
      "br_r": 0.0452,
      "br_status": 1,
      "br_x": 0.1652,
      "f_bus": 1,
      "index": 2,
      "rate_a": 152.0,
      "rate_b": 152.0,
      "rate_c": 152.0,
      "shift": 0.0,
      "t_bus": 3,
      "tap": 0.0
    },
    {
      "angmax": 30.0,
      "angmin": -30.0,
      "br_b": 0.0368,
      "br_r": 0.057,
      "br_status": 1,
      "br_x": 0.1737,
      "f_bus": 2,
      "index": 3,
      "rate_a": 139.0,
      "rate_b": 139.0,
      "rate_c": 139.0,
      "shift": 0.0,
      "t_bus": 4,
      "tap": 0.0
    },
    {
      "angmax": 30.0,
      "angmin": -30.0,
      "br_b": 0.0084,
      "br_r": 0.0132,
      "br_status": 1,
      "br_x": 0.0379,
      "f_bus": 3,
      "index": 4,
      "rate_a": 135.0,
      "rate_b": 135.0,
      "rate_c": 135.0,
      "shift": 0.0,
      "t_bus": 4,
      "tap": 0.0
    },
    {
      "angmax": 30.0,
      "angmin": -30.0,
      "br_b": 0.0418,
      "br_r": 0.0472,
      "br_status": 1,
      "br_x": 0.1983,
      "f_bus": 2,
      "index": 5,
      "rate_a": 144.0,
      "rate_b": 144.0,
      "rate_c": 144.0,
      "shift": 0.0,
      "t_bus": 5,
      "tap": 0.0
    },
    {
      "angmax": 30.0,
      "angmin": -30.0,
      "br_b": 0.0374,
      "br_r": 0.0581,
      "br_status": 1,
      "br_x": 0.1763,
      "f_bus": 2,
      "index": 6,
      "rate_a": 139.0,
      "rate_b": 139.0,
      "rate_c": 139.0,
      "shift": 0.0,
      "t_bus": 6,
      "tap": 0.0
    },
    {
      "angmax": 30.0,
      "angmin": -30.0,
      "br_b": 0.009,
      "br_r": 0.0119,
      "br_status": 1,
      "br_x": 0.0414,
      "f_bus": 4,
      "index": 7,
      "rate_a": 148.0,
      "rate_b": 148.0,
      "rate_c": 148.0,
      "shift": 0.0,
      "t_bus": 6,
      "tap": 0.0
    },
    {
      "angmax": 30.0,
      "angmin": -30.0,
      "br_b": 0.0204,
      "br_r": 0.046,
      "br_status": 1,
      "br_x": 0.116,
      "f_bus": 5,
      "index": 8,
      "rate_a": 127.0,
      "rate_b": 127.0,
      "rate_c": 127.0,
      "shift": 0.0,
      "t_bus": 7,
      "tap": 0.0
    },
    {
      "angmax": 30.0,
      "angmin": -30.0,
      "br_b": 0.017,
      "br_r": 0.0267,
      "br_status": 1,
      "br_x": 0.082,
      "f_bus": 6,
      "index": 9,
      "rate_a": 140.0,
      "rate_b": 140.0,
      "rate_c": 140.0,
      "shift": 0.0,
      "t_bus": 7,
      "tap": 0.0
    },
    {
      "angmax": 30.0,
      "angmin": -30.0,
      "br_b": 0.009,
      "br_r": 0.012,
      "br_status": 1,
      "br_x": 0.042,
      "f_bus": 6,
      "index": 10,
      "rate_a": 148.0,
      "rate_b": 148.0,
      "rate_c": 148.0,
      "shift": 0.0,
      "t_bus": 8,
      "tap": 0.0
    },
    {
      "angmax": 30.0,
      "angmin": -30.0,
      "br_b": 0.0,
      "br_r": 0.0,
      "br_status": 1,
      "br_x": 0.208,
      "f_bus": 6,
      "index": 11,
      "rate_a": 142.0,
      "rate_b": 142.0,
      "rate_c": 142.0,
      "shift": 0.0,
      "t_bus": 9,
      "tap": 0.978
    },
    {
      "angmax": 30.0,
      "angmin": -30.0,
      "br_b": 0.0,
      "br_r": 0.0,
      "br_status": 1,
      "br_x": 0.556,
      "f_bus": 6,
      "index": 12,
      "rate_a": 53.0,
      "rate_b": 53.0,
      "rate_c": 53.0,
      "shift": 0.0,
      "t_bus": 10,
      "tap": 0.969
    },
    {
      "angmax": 30.0,
      "angmin": -30.0,
      "br_b": 0.0,
      "br_r": 0.0,
      "br_status": 1,
      "br_x": 0.208,
      "f_bus": 9,
      "index": 13,
      "rate_a": 142.0,
      "rate_b": 142.0,
      "rate_c": 142.0,
      "shift": 0.0,
      "t_bus": 11,
      "tap": 0.0
    },
    {
      "angmax": 30.0,
      "angmin": -30.0,
      "br_b": 0.0,
      "br_r": 0.0,
      "br_status": 1,
      "br_x": 0.11,
      "f_bus": 9,
      "index": 14,
      "rate_a": 267.0,
      "rate_b": 267.0,
      "rate_c": 267.0,
      "shift": 0.0,
      "t_bus": 10,
      "tap": 0.0
    },
    {
      "angmax": 30.0,
      "angmin": -30.0,
      "br_b": 0.0,
      "br_r": 0.0,
      "br_status": 1,
      "br_x": 0.256,
      "f_bus": 4,
      "index": 15,
      "rate_a": 115.0,
      "rate_b": 115.0,
      "rate_c": 115.0,
      "shift": 0.0,
      "t_bus": 12,
      "tap": 0.932
    },
    {
      "angmax": 30.0,
      "angmin": -30.0,
      "br_b": 0.0,
      "br_r": 0.0,
      "br_status": 1,
      "br_x": 0.14,
      "f_bus": 12,
      "index": 16,
      "rate_a": 210.0,
      "rate_b": 210.0,
      "rate_c": 210.0,
      "shift": 0.0,
      "t_bus": 13,
      "tap": 0.0
    },
    {
      "angmax": 30.0,
      "angmin": -30.0,
      "br_b": 0.0,
      "br_r": 0.1231,
      "br_status": 1,
      "br_x": 0.2559,
      "f_bus": 12,
      "index": 17,
      "rate_a": 29.0,
      "rate_b": 29.0,
      "rate_c": 29.0,
      "shift": 0.0,
      "t_bus": 14,
      "tap": 0.0
    },
    {
      "angmax": 30.0,
      "angmin": -30.0,
      "br_b": 0.0,
      "br_r": 0.0662,
      "br_status": 1,
      "br_x": 0.1304,
      "f_bus": 12,
      "index": 18,
      "rate_a": 29.0,
      "rate_b": 29.0,
      "rate_c": 29.0,
      "shift": 0.0,
      "t_bus": 15,
      "tap": 0.0
    },
    {
      "angmax": 30.0,
      "angmin": -30.0,
      "br_b": 0.0,
      "br_r": 0.0945,
      "br_status": 1,
      "br_x": 0.1987,
      "f_bus": 12,
      "index": 19,
      "rate_a": 30.0,
      "rate_b": 30.0,
      "rate_c": 30.0,
      "shift": 0.0,
      "t_bus": 16,
      "tap": 0.0
    },
    {
      "angmax": 30.0,
      "angmin": -30.0,
      "br_b": 0.0,
      "br_r": 0.221,
      "br_status": 1,
      "br_x": 0.1997,
      "f_bus": 14,
      "index": 20,
      "rate_a": 20.0,
      "rate_b": 20.0,
      "rate_c": 20.0,
      "shift": 0.0,
      "t_bus": 15,
      "tap": 0.0
    },
    {
      "angmax": 30.0,
      "angmin": -30.0,
      "br_b": 0.0,
      "br_r": 0.0524,
      "br_status": 1,
      "br_x": 0.1923,
      "f_bus": 16,
      "index": 21,
      "rate_a": 38.0,
      "rate_b": 38.0,
      "rate_c": 38.0,
      "shift": 0.0,
      "t_bus": 17,
      "tap": 0.0
    },
    {
      "angmax": 30.0,
      "angmin": -30.0,
      "br_b": 0.0,
      "br_r": 0.1073,
      "br_status": 1,
      "br_x": 0.2185,
      "f_bus": 15,
      "index": 22,
      "rate_a": 29.0,
      "rate_b": 29.0,
      "rate_c": 29.0,
      "shift": 0.0,
      "t_bus": 18,
      "tap": 0.0
    },
    {
      "angmax": 30.0,
      "angmin": -30.0,
      "br_b": 0.0,
      "br_r": 0.0639,
      "br_status": 1,
      "br_x": 0.1292,
      "f_bus": 18,
      "index": 23,
      "rate_a": 29.0,
      "rate_b": 29.0,
      "rate_c": 29.0,
      "shift": 0.0,
      "t_bus": 19,
      "tap": 0.0
    },
    {
      "angmax": 30.0,
      "angmin": -30.0,
      "br_b": 0.0,
      "br_r": 0.034,
      "br_status": 1,
      "br_x": 0.068,
      "f_bus": 19,
      "index": 24,
      "rate_a": 29.0,
      "rate_b": 29.0,
      "rate_c": 29.0,
      "shift": 0.0,
      "t_bus": 20,
      "tap": 0.0
    },
    {
      "angmax": 30.0,
      "angmin": -30.0,
      "br_b": 0.0,
      "br_r": 0.0936,
      "br_status": 1,
      "br_x": 0.209,
      "f_bus": 10,
      "index": 25,
      "rate_a": 30.0,
      "rate_b": 30.0,
      "rate_c": 30.0,
      "shift": 0.0,
      "t_bus": 20,
      "tap": 0.0
    },
    {
      "angmax": 30.0,
      "angmin": -30.0,
      "br_b": 0.0,
      "br_r": 0.0324,
      "br_status": 1,
      "br_x": 0.0845,
      "f_bus": 10,
      "index": 26,
      "rate_a": 33.0,
      "rate_b": 33.0,
      "rate_c": 33.0,
      "shift": 0.0,
      "t_bus": 17,
      "tap": 0.0
    },
    {
      "angmax": 30.0,
      "angmin": -30.0,
      "br_b": 0.0,
      "br_r": 0.0348,
      "br_status": 1,
      "br_x": 0.0749,
      "f_bus": 10,
      "index": 27,
      "rate_a": 30.0,
      "rate_b": 30.0,
      "rate_c": 30.0,
      "shift": 0.0,
      "t_bus": 21,
      "tap": 0.0
    },
    {
      "angmax": 30.0,
      "angmin": -30.0,
      "br_b": 0.0,
      "br_r": 0.0727,
      "br_status": 1,
      "br_x": 0.1499,
      "f_bus": 10,
      "index": 28,
      "rate_a": 29.0,
      "rate_b": 29.0,
      "rate_c": 29.0,
      "shift": 0.0,
      "t_bus": 22,
      "tap": 0.0
    },
    {
      "angmax": 30.0,
      "angmin": -30.0,
      "br_b": 0.0,
      "br_r": 0.0116,
      "br_status": 1,
      "br_x": 0.0236,
      "f_bus": 21,
      "index": 29,
      "rate_a": 29.0,
      "rate_b": 29.0,
      "rate_c": 29.0,
      "shift": 0.0,
      "t_bus": 22,
      "tap": 0.0
    },
    {
      "angmax": 30.0,
      "angmin": -30.0,
      "br_b": 0.0,
      "br_r": 0.1,
      "br_status": 1,
      "br_x": 0.202,
      "f_bus": 15,
      "index": 30,
      "rate_a": 29.0,
      "rate_b": 29.0,
      "rate_c": 29.0,
      "shift": 0.0,
      "t_bus": 23,
      "tap": 0.0
    },
    {
      "angmax": 30.0,
      "angmin": -30.0,
      "br_b": 0.0,
      "br_r": 0.115,
      "br_status": 1,
      "br_x": 0.179,
      "f_bus": 22,
      "index": 31,
      "rate_a": 26.0,
      "rate_b": 26.0,
      "rate_c": 26.0,
      "shift": 0.0,
      "t_bus": 24,
      "tap": 0.0
    },
    {
      "angmax": 30.0,
      "angmin": -30.0,
      "br_b": 0.0,
      "br_r": 0.132,
      "br_status": 1,
      "br_x": 0.27,
      "f_bus": 23,
      "index": 32,
      "rate_a": 29.0,
      "rate_b": 29.0,
      "rate_c": 29.0,
      "shift": 0.0,
      "t_bus": 24,
      "tap": 0.0
    },
    {
      "angmax": 30.0,
      "angmin": -30.0,
      "br_b": 0.0,
      "br_r": 0.1885,
      "br_status": 1,
      "br_x": 0.3292,
      "f_bus": 24,
      "index": 33,
      "rate_a": 27.0,
      "rate_b": 27.0,
      "rate_c": 27.0,
      "shift": 0.0,
      "t_bus": 25,
      "tap": 0.0
    },
    {
      "angmax": 30.0,
      "angmin": -30.0,
      "br_b": 0.0,
      "br_r": 0.2544,
      "br_status": 1,
      "br_x": 0.38,
      "f_bus": 25,
      "index": 34,
      "rate_a": 25.0,
      "rate_b": 25.0,
      "rate_c": 25.0,
      "shift": 0.0,
      "t_bus": 26,
      "tap": 0.0
    },
    {
      "angmax": 30.0,
      "angmin": -30.0,
      "br_b": 0.0,
      "br_r": 0.1093,
      "br_status": 1,
      "br_x": 0.2087,
      "f_bus": 25,
      "index": 35,
      "rate_a": 28.0,
      "rate_b": 28.0,
      "rate_c": 28.0,
      "shift": 0.0,
      "t_bus": 27,
      "tap": 0.0
    },
    {
      "angmax": 30.0,
      "angmin": -30.0,
      "br_b": 0.0,
      "br_r": 0.0,
      "br_status": 1,
      "br_x": 0.396,
      "f_bus": 28,
      "index": 36,
      "rate_a": 75.0,
      "rate_b": 75.0,
      "rate_c": 75.0,
      "shift": 0.0,
      "t_bus": 27,
      "tap": 0.968
    },
    {
      "angmax": 30.0,
      "angmin": -30.0,
      "br_b": 0.0,
      "br_r": 0.2198,
      "br_status": 1,
      "br_x": 0.4153,
      "f_bus": 27,
      "index": 37,
      "rate_a": 28.0,
      "rate_b": 28.0,
      "rate_c": 28.0,
      "shift": 0.0,
      "t_bus": 29,
      "tap": 0.0
    },
    {
      "angmax": 30.0,
      "angmin": -30.0,
      "br_b": 0.0,
      "br_r": 0.3202,
      "br_status": 1,
      "br_x": 0.6027,
      "f_bus": 27,
      "index": 38,
      "rate_a": 28.0,
      "rate_b": 28.0,
      "rate_c": 28.0,
      "shift": 0.0,
      "t_bus": 30,
      "tap": 0.0
    },
    {
      "angmax": 30.0,
      "angmin": -30.0,
      "br_b": 0.0,
      "br_r": 0.2399,
      "br_status": 1,
      "br_x": 0.4533,
      "f_bus": 29,
      "index": 39,
      "rate_a": 28.0,
      "rate_b": 28.0,
      "rate_c": 28.0,
      "shift": 0.0,
      "t_bus": 30,
      "tap": 0.0
    },
    {
      "angmax": 30.0,
      "angmin": -30.0,
      "br_b": 0.0428,
      "br_r": 0.0636,
      "br_status": 1,
      "br_x": 0.2,
      "f_bus": 8,
      "index": 40,
      "rate_a": 140.0,
      "rate_b": 140.0,
      "rate_c": 140.0,
      "shift": 0.0,
      "t_bus": 28,
      "tap": 0.0
    },
    {
      "angmax": 30.0,
      "angmin": -30.0,
      "br_b": 0.013,
      "br_r": 0.0169,
      "br_status": 1,
      "br_x": 0.0599,
      "f_bus": 6,
      "index": 41,
      "rate_a": 149.0,
      "rate_b": 149.0,
      "rate_c": 149.0,
      "shift": 0.0,
      "t_bus": 28,
      "tap": 0.0
    }
  ],
  "bus": [
    {
      "area": 1,
      "base_kv": 132.0,
      "bs": 0.0,
      "bus_i": 1,
      "bus_type": 3,
      "gs": 0.0,
      "index": 1,
      "pd": 0.0,
      "qd": 0.0,
      "va": -0.0,
      "vm": 1.06,
      "vmax": 1.06,
      "vmin": 0.94,
      "zone": 1
    },
    {
      "area": 1,
      "base_kv": 132.0,
      "bs": 0.0,
      "bus_i": 2,
      "bus_type": 2,
      "gs": 0.0,
      "index": 2,
      "pd": 21.7,
      "qd": 12.7,
      "va": -4.11149,
      "vm": 1.03591,
      "vmax": 1.06,
      "vmin": 0.94,
      "zone": 1
    },
    {
      "area": 1,
      "base_kv": 132.0,
      "bs": 0.0,
      "bus_i": 3,
      "bus_type": 1,
      "gs": 0.0,
      "index": 3,
      "pd": 2.4,
      "qd": 1.2,
      "va": -6.85372,
      "vm": 1.01502,
      "vmax": 1.06,
      "vmin": 0.94,
      "zone": 1
    },
    {
      "area": 1,
      "base_kv": 132.0,
      "bs": 0.0,
      "bus_i": 4,
      "bus_type": 1,
      "gs": 0.0,
      "index": 4,
      "pd": 7.6,
      "qd": 1.6,
      "va": -8.44574,
      "vm": 1.00446,
      "vmax": 1.06,
      "vmin": 0.94,
      "zone": 1
    },
    {
      "area": 1,
      "base_kv": 132.0,
      "bs": 0.0,
      "bus_i": 5,
      "bus_type": 2,
      "gs": 0.0,
      "index": 5,
      "pd": 94.2,
      "qd": 19.0,
      "va": -13.13219,
      "vm": 0.99748,
      "vmax": 1.06,
      "vmin": 0.94,
      "zone": 1
    },
    {
      "area": 1,
      "base_kv": 132.0,
      "bs": 0.0,
      "bus_i": 6,
      "bus_type": 1,
      "gs": 0.0,
      "index": 6,
      "pd": 0.0,
      "qd": 0.0,
      "va": -10.15671,
      "vm": 1.0017,
      "vmax": 1.06,
      "vmin": 0.94,
      "zone": 1
    },
    {
      "area": 1,
      "base_kv": 132.0,
      "bs": 0.0,
      "bus_i": 7,
      "bus_type": 1,
      "gs": 0.0,
      "index": 7,
      "pd": 22.8,
      "qd": 10.9,
      "va": -11.91706,
      "vm": 0.99208,
      "vmax": 1.06,
      "vmin": 0.94,
      "zone": 1
    },
    {
      "area": 1,
      "base_kv": 132.0,
      "bs": 0.0,
      "bus_i": 8,
      "bus_type": 2,
      "gs": 0.0,
      "index": 8,
      "pd": 30.0,
      "qd": 30.0,
      "va": -10.93461,
      "vm": 1.00241,
      "vmax": 1.06,
      "vmin": 0.94,
      "zone": 1
    },
    {
      "area": 1,
      "base_kv": 1.0,
      "bs": 0.0,
      "bus_i": 9,
      "bus_type": 1,
      "gs": 0.0,
      "index": 9,
      "pd": 0.0,
      "qd": 0.0,
      "va": -13.26615,
      "vm": 1.03671,
      "vmax": 1.06,
      "vmin": 0.94,
      "zone": 1
    },
    {
      "area": 1,
      "base_kv": 33.0,
      "bs": 19.0,
      "bus_i": 10,
      "bus_type": 1,
      "gs": 0.0,
      "index": 10,
      "pd": 5.8,
      "qd": 2.0,
      "va": -14.8973,
      "vm": 1.0322,
      "vmax": 1.06,
      "vmin": 0.94,
      "zone": 1
    },
    {
      "area": 1,
      "base_kv": 11.0,
      "bs": 0.0,
      "bus_i": 11,
      "bus_type": 2,
      "gs": 0.0,
      "index": 11,
      "pd": 0.0,
      "qd": 0.0,
      "va": -13.26615,
      "vm": 1.06,
      "vmax": 1.06,
      "vmin": 0.94,
      "zone": 1
    },
    {
      "area": 1,
      "base_kv": 33.0,
      "bs": 0.0,
      "bus_i": 12,
      "bus_type": 1,
      "gs": 0.0,
      "index": 12,
      "pd": 11.2,
      "qd": 7.5,
      "va": -14.18878,
      "vm": 1.04625,
      "vmax": 1.06,
      "vmin": 0.94,
      "zone": 1
    },
    {
      "area": 1,
      "base_kv": 11.0,
      "bs": 0.0,
      "bus_i": 13,
      "bus_type": 2,
      "gs": 0.0,
      "index": 13,
      "pd": 0.0,
      "qd": 0.0,
      "va": -14.18878,
      "vm": 1.06,
      "vmax": 1.06,
      "vmin": 0.94,
      "zone": 1
    },
    {
      "area": 1,
      "base_kv": 33.0,
      "bs": 0.0,
      "bus_i": 14,
      "bus_type": 1,
      "gs": 0.0,
      "index": 14,
      "pd": 6.2,
      "qd": 1.6,
      "va": -15.09457,
      "vm": 1.03103,
      "vmax": 1.06,
      "vmin": 0.94,
      "zone": 1
    },
    {
      "area": 1,
      "base_kv": 33.0,
      "bs": 0.0,
      "bus_i": 15,
      "bus_type": 1,
      "gs": 0.0,
      "index": 15,
      "pd": 8.2,
      "qd": 2.5,
      "va": -15.17834,
      "vm": 1.02621,
      "vmax": 1.06,
      "vmin": 0.94,
      "zone": 1
    },
    {
      "area": 1,
      "base_kv": 33.0,
      "bs": 0.0,
      "bus_i": 16,
      "bus_type": 1,
      "gs": 0.0,
      "index": 16,
      "pd": 3.5,
      "qd": 1.8,
      "va": -14.7532,
      "vm": 1.03259,
      "vmax": 1.06,
      "vmin": 0.94,
      "zone": 1
    },
    {
      "area": 1,
      "base_kv": 33.0,
      "bs": 0.0,
      "bus_i": 17,
      "bus_type": 1,
      "gs": 0.0,
      "index": 17,
      "pd": 9.0,
      "qd": 5.8,
      "va": -15.07475,
      "vm": 1.02726,
      "vmax": 1.06,
      "vmin": 0.94,
      "zone": 1
    },
    {
      "area": 1,
      "base_kv": 33.0,
      "bs": 0.0,
      "bus_i": 18,
      "bus_type": 1,
      "gs": 0.0,
      "index": 18,
      "pd": 3.2,
      "qd": 0.9,
      "va": -15.79032,
      "vm": 1.01602,
      "vmax": 1.06,
      "vmin": 0.94,
      "zone": 1
    },
    {
      "area": 1,
      "base_kv": 33.0,
      "bs": 0.0,
      "bus_i": 19,
      "bus_type": 1,
      "gs": 0.0,
      "index": 19,
      "pd": 9.5,
      "qd": 3.4,
      "va": -15.95831,
      "vm": 1.01317,
      "vmax": 1.06,
      "vmin": 0.94,
      "zone": 1
    },
    {
      "area": 1,
      "base_kv": 33.0,
      "bs": 0.0,
      "bus_i": 20,
      "bus_type": 1,
      "gs": 0.0,
      "index": 20,
      "pd": 2.2,
      "qd": 0.7,
      "va": -15.75153,
      "vm": 1.01714,
      "vmax": 1.06,
      "vmin": 0.94,
      "zone": 1
    },
    {
      "area": 1,
      "base_kv": 33.0,
      "bs": 0.0,
      "bus_i": 21,
      "bus_type": 1,
      "gs": 0.0,
      "index": 21,
      "pd": 17.5,
      "qd": 11.2,
      "va": -15.35269,
      "vm": 1.01982,
      "vmax": 1.06,
      "vmin": 0.94,
      "zone": 1
    },
    {
      "area": 1,
      "base_kv": 33.0,
      "bs": 0.0,
      "bus_i": 22,
      "bus_type": 1,
      "gs": 0.0,
      "index": 22,
      "pd": 0.0,
      "qd": 0.0,
      "va": -15.3386,
      "vm": 1.02041,
      "vmax": 1.06,
      "vmin": 0.94,
      "zone": 1
    },
    {
      "area": 1,
      "base_kv": 33.0,
      "bs": 0.0,
      "bus_i": 23,
      "bus_type": 1,
      "gs": 0.0,
      "index": 23,
      "pd": 3.2,
      "qd": 1.6,
      "va": -15.564,
      "vm": 1.01532,
      "vmax": 1.06,
      "vmin": 0.94,
      "zone": 1
    },
    {
      "area": 1,
      "base_kv": 33.0,
      "bs": 4.3,
      "bus_i": 24,
      "bus_type": 1,
      "gs": 0.0,
      "index": 24,
      "pd": 8.7,
      "qd": 6.7,
      "va": -15.72597,
      "vm": 1.0093,
      "vmax": 1.06,
      "vmin": 0.94,
      "zone": 1
    },
    {
      "area": 1,
      "base_kv": 33.0,
      "bs": 0.0,
      "bus_i": 25,
      "bus_type": 1,
      "gs": 0.0,
      "index": 25,
      "pd": 0.0,
      "qd": 0.0,
      "va": -15.29138,
      "vm": 1.00621,
      "vmax": 1.06,
      "vmin": 0.94,
      "zone": 1
    },
    {
      "area": 1,
      "base_kv": 33.0,
      "bs": 0.0,
      "bus_i": 26,
      "bus_type": 1,
      "gs": 0.0,
      "index": 26,
      "pd": 3.5,
      "qd": 2.3,
      "va": -15.72053,
      "vm": 0.98833,
      "vmax": 1.06,
      "vmin": 0.94,
      "zone": 1
    },
    {
      "area": 1,
      "base_kv": 33.0,
      "bs": 0.0,
      "bus_i": 27,
      "bus_type": 1,
      "gs": 0.0,
      "index": 27,
      "pd": 0.0,
      "qd": 0.0,
      "va": -14.75624,
      "vm": 1.01294,
      "vmax": 1.06,
      "vmin": 0.94,
      "zone": 1
    },
    {
      "area": 1,
      "base_kv": 132.0,
      "bs": 0.0,
      "bus_i": 28,
      "bus_type": 1,
      "gs": 0.0,
      "index": 28,
      "pd": 0.0,
      "qd": 0.0,
      "va": -10.79567,
      "vm": 0.99824,
      "vmax": 1.06,
      "vmin": 0.94,
      "zone": 1
    },
    {
      "area": 1,
      "base_kv": 33.0,
      "bs": 0.0,
      "bus_i": 29,
      "bus_type": 1,
      "gs": 0.0,
      "index": 29,
      "pd": 2.4,
      "qd": 0.9,
      "va": -16.01182,
      "vm": 0.99288,
      "vmax": 1.06,
      "vmin": 0.94,
      "zone": 1
    },
    {
      "area": 1,
      "base_kv": 33.0,
      "bs": 0.0,
      "bus_i": 30,
      "bus_type": 1,
      "gs": 0.0,
      "index": 30,
      "pd": 10.6,
      "qd": 1.9,
      "va": -16.91371,
      "vm": 0.98128,
      "vmax": 1.06,
      "vmin": 0.94,
      "zone": 1
    }
  ],
  "dcline": [],
  "gen": [
    {
      "apf": 0.0,
      "gen_bus": 1,
      "gen_status": 1,
      "index": 1,
      "mbase": 100.0,
      "pc1": 0.0,
      "pc2": 0.0,
      "pg": 218.839,
      "pmax": 784.0,
      "pmin": 0.0,
      "qc1max": 0.0,
      "qc1min": 0.0,
      "qc2max": 0.0,
      "qc2min": 0.0,
      "qg": 9.372,
      "qmax": 10.0,
      "qmin": 0.0,
      "ramp_30": 0.0,
      "ramp_agc": 0.0,
      "ramp_q": 0.0,
      "vg": 1.06
    },
    {
      "apf": 0.0,
      "gen_bus": 2,
      "gen_status": 1,
      "index": 2,
      "mbase": 100.0,
      "pc1": 0.0,
      "pc2": 0.0,
      "pg": 80.05,
      "pmax": 100.0,
      "pmin": 0.0,
      "qc1max": 0.0,
      "qc1min": 0.0,
      "qc2max": 0.0,
      "qc2min": 0.0,
      "qg": 24.589,
      "qmax": 50.0,
      "qmin": -40.0,
      "ramp_30": 0.0,
      "ramp_agc": 0.0,
      "ramp_q": -40.0,
      "vg": 1.03591
    },
    {
      "apf": 0.0,
      "gen_bus": 5,
      "gen_status": 1,
      "index": 3,
      "mbase": 100.0,
      "pc1": 0.0,
      "pc2": 0.0,
      "pg": 0.0,
      "pmax": 0.0,
      "pmin": 0.0,
      "qc1max": 0.0,
      "qc1min": 0.0,
      "qc2max": 0.0,
      "qc2min": 0.0,
      "qg": 32.487,
      "qmax": 40.0,
      "qmin": -40.0,
      "ramp_30": 0.0,
      "ramp_agc": 0.0,
      "ramp_q": -40.0,
      "vg": 0.99748
    },
    {
      "apf": 0.0,
      "gen_bus": 8,
      "gen_status": 1,
      "index": 4,
      "mbase": 100.0,
      "pc1": 0.0,
      "pc2": 0.0,
      "pg": 0.0,
      "pmax": 0.0,
      "pmin": 0.0,
      "qc1max": 0.0,
      "qc1min": 0.0,
      "qc2max": 0.0,
      "qc2min": 0.0,
      "qg": 40.0,
      "qmax": 40.0,
      "qmin": -10.0,
      "ramp_30": 0.0,
      "ramp_agc": 0.0,
      "ramp_q": -10.0,
      "vg": 1.00241
    },
    {
      "apf": 0.0,
      "gen_bus": 11,
      "gen_status": 1,
      "index": 5,
      "mbase": 100.0,
      "pc1": 0.0,
      "pc2": 0.0,
      "pg": 0.0,
      "pmax": 0.0,
      "pmin": 0.0,
      "qc1max": 0.0,
      "qc1min": 0.0,
      "qc2max": 0.0,
      "qc2min": 0.0,
      "qg": 11.87,
      "qmax": 24.0,
      "qmin": -6.0,
      "ramp_30": 0.0,
      "ramp_agc": 0.0,
      "ramp_q": -6.0,
      "vg": 1.06
    },
    {
      "apf": 0.0,
      "gen_bus": 13,
      "gen_status": 1,
      "index": 6,
      "mbase": 100.0,
      "pc1": 0.0,
      "pc2": 0.0,
      "pg": 0.0,
      "pmax": 0.0,
      "pmin": 0.0,
      "qc1max": 0.0,
      "qc1min": 0.0,
      "qc2max": 0.0,
      "qc2min": 0.0,
      "qg": 10.414,
      "qmax": 24.0,
      "qmin": -6.0,
      "ramp_30": 0.0,
      "ramp_agc": 0.0,
      "ramp_q": -6.0,
      "vg": 1.06
    }
  ],
  "gencost": [
    {
      "cost": [
        0.0,
        0.521378,
        0.0
      ],
      "index": 1,
      "model": 2,
      "ncost": 3,
      "shutdown": 0.0,
      "startup": 0.0
    },
    {
      "cost": [
        0.0,
        1.135166,
        0.0
      ],
      "index": 2,
      "model": 2,
      "ncost": 3,
      "shutdown": 0.0,
      "startup": 0.0
    },
    {
      "cost": [
        0.0,
        0.0,
        0.0
      ],
      "index": 3,
      "model": 2,
      "ncost": 3,
      "shutdown": 0.0,
      "startup": 0.0
    },
    {
      "cost": [
        0.0,
        0.0,
        0.0
      ],
      "index": 4,
      "model": 2,
      "ncost": 3,
      "shutdown": 0.0,
      "startup": 0.0
    },
    {
      "cost": [
        0.0,
        0.0,
        0.0
      ],
      "index": 5,
      "model": 2,
      "ncost": 3,
      "shutdown": 0.0,
      "startup": 0.0
    },
    {
      "cost": [
        0.0,
        0.0,
        0.0
      ],
      "index": 6,
      "model": 2,
      "ncost": 3,
      "shutdown": 0.0,
      "startup": 0.0
    }
  ],
  "name": "nesta_case30_ieee",
  "version": "'2'"
}